/*--------------------------------*- C++ -*----------------------------------*\
| =========                 |                                                 |
| \\      /  F ield         | OpenFOAM: The Open Source CFD Toolbox           |
|  \\    /   O peration     | Version:  v1912                                 |
|   \\  /    A nd           | Website:  www.openfoam.com                      |
|    \\/     M anipulation  |                                                 |
\*---------------------------------------------------------------------------*/
FoamFile
{
    version     2.0;
    format      ascii;
    class       volScalarField;
    object      T;
}
// * * * * * * * * * * * * * * * * * * * * * * * * * * * * * * * * * * * * * //

dimensions      [1 -3 0 0 0 0 0];

internalField   uniform 0; // the model can not handel zero

boundaryField
{

    inlet
    {
        type            fixedValue;
        value           uniform 0.0005;
    }

    outlet
    {
        type            zeroGradient;
    }

    top
    { 
        type            empty;
    }

    bottom
    {
        type            empty;
    }

    front
    {
        type            empty;
    }

    back
    {
        type            empty;
    }
    
}
// ************************************************************************* //
